LTspice 26.0.0 for Windows
Circuit: C:\users\dell\Desktop\Communication\Envelope Detector.net
Start Time: Mon Mar 30 21:22:39 2026
solver = Normal
Maximum thread count: 8
tnom = 27
temp = 27
method = trap
.OP point found by inspection.
.OP point found by inspection.
Total elapsed time: 0.542 seconds.

Files loaded:
C:\users\dell\Desktop\Communication\Envelope Detector.net
C:\users\dell\AppData\Local\LTspice\lib\cmp\standard.dio

