LTspice 26.0.0 for Windows
Circuit: C:\users\dell\Desktop\Communication\AmDeModulator.net
Start Time: Thu Apr  2 22:21:42 2026
solver = Normal
Maximum thread count: 8
tnom = 27
temp = 27
method = trap
Direct Newton iteration succeeded in finding operating point.
Total elapsed time: 3.702 seconds.

Files loaded:
C:\users\dell\Desktop\Communication\AmDeModulator.net
C:\users\dell\AppData\Local\LTspice\lib\cmp\standard.dio
C:\users\dell\AppData\Local\LTspice\lib\cmp\standard.bjt
C:\users\dell\AppData\Local\LTspice\lib\sub\AD8542.sub

