LTspice 26.0.0 for Windows
Circuit: C:\users\dell\Desktop\Communication\AmModulator.net
Start Time: Sun Mar 29 20:51:48 2026
solver = Normal
Maximum thread count: 8
tnom = 27
temp = 27
method = trap
Direct Newton iteration succeeded in finding operating point.
Total elapsed time: 1.827 seconds.

Files loaded:
C:\users\dell\Desktop\Communication\AmModulator.net
C:\users\dell\AppData\Local\LTspice\lib\cmp\standard.bjt
C:\users\dell\AppData\Local\LTspice\lib\sub\AD8542.sub

